Test_Network/condensed/network_17/Feeder_6/Loads - Copy.txt
New Load.LOAD1 Phases=1 Bus1=124.3 kV=0.23 kW=1 PF=0.95
New Load.LOAD2 Phases=1 Bus1=142.2 kV=0.23 kW=1 PF=0.95
New Load.LOAD3 Phases=1 Bus1=216.1 kV=0.23 kW=1 PF=0.95
New Load.LOAD4 Phases=1 Bus1=220.1 kV=0.23 kW=1 PF=0.95
New Load.LOAD5 Phases=1 Bus1=307.3 kV=0.23 kW=1 PF=0.95
New Load.LOAD6 Phases=1 Bus1=318.2 kV=0.23 kW=1 PF=0.95
New Load.LOAD7 Phases=1 Bus1=345.2 kV=0.23 kW=1 PF=0.95
New Load.LOAD8 Phases=1 Bus1=401.3 kV=0.23 kW=1 PF=0.95
New Load.LOAD9 Phases=1 Bus1=410.2 kV=0.23 kW=1 PF=0.95
New Load.LOAD10 Phases=1 Bus1=440.2 kV=0.23 kW=1 PF=0.95
New Load.LOAD11 Phases=1 Bus1=441.2 kV=0.23 kW=1 PF=0.95
New Load.LOAD12 Phases=1 Bus1=512.2 kV=0.23 kW=1 PF=0.95
New Load.LOAD13 Phases=1 Bus1=575.2 kV=0.23 kW=1 PF=0.95
New Load.LOAD14 Phases=1 Bus1=576.2 kV=0.23 kW=1 PF=0.95
New Load.LOAD15 Phases=1 Bus1=577.1 kV=0.23 kW=1 PF=0.95
New Load.LOAD16 Phases=1 Bus1=579.3 kV=0.23 kW=1 PF=0.95
New Load.LOAD17 Phases=1 Bus1=620.2 kV=0.23 kW=1 PF=0.95
New Load.LOAD18 Phases=1 Bus1=714.3 kV=0.23 kW=1 PF=0.95
New Load.LOAD19 Phases=1 Bus1=728.1 kV=0.23 kW=1 PF=0.95
New Load.LOAD20 Phases=1 Bus1=754.3 kV=0.23 kW=1 PF=0.95
New Load.LOAD21 Phases=1 Bus1=755.3 kV=0.23 kW=1 PF=0.95
New Load.LOAD22 Phases=1 Bus1=776.1 kV=0.23 kW=1 PF=0.95
New Load.LOAD23 Phases=1 Bus1=777.1 kV=0.23 kW=1 PF=0.95
New Load.LOAD24 Phases=1 Bus1=785.3 kV=0.23 kW=1 PF=0.95
New Load.LOAD25 Phases=1 Bus1=786.3 kV=0.23 kW=1 PF=0.95
New Load.LOAD26 Phases=1 Bus1=799.1 kV=0.23 kW=1 PF=0.95
New Load.LOAD27 Phases=1 Bus1=809.1 kV=0.23 kW=1 PF=0.95
New Load.LOAD28 Phases=1 Bus1=810.1 kV=0.23 kW=1 PF=0.95
New Load.LOAD29 Phases=1 Bus1=838.2 kV=0.23 kW=1 PF=0.95
New Load.LOAD30 Phases=1 Bus1=842.1 kV=0.23 kW=1 PF=0.95
New Load.LOAD31 Phases=1 Bus1=843.1 kV=0.23 kW=1 PF=0.95
New Load.LOAD32 Phases=1 Bus1=871.3 kV=0.23 kW=1 PF=0.95
New Load.LOAD33 Phases=1 Bus1=887.1 kV=0.23 kW=1 PF=0.95
New Load.LOAD34 Phases=1 Bus1=930.1 kV=0.23 kW=1 PF=0.95
New Load.LOAD35 Phases=1 Bus1=931.1 kV=0.23 kW=1 PF=0.95
New Load.LOAD36 Phases=1 Bus1=968.2 kV=0.23 kW=1 PF=0.95
New Load.LOAD37 Phases=1 Bus1=980.2 kV=0.23 kW=1 PF=0.95
New Load.LOAD38 Phases=1 Bus1=1027.3 kV=0.23 kW=1 PF=0.95
New Load.LOAD39 Phases=1 Bus1=1040.2 kV=0.23 kW=1 PF=0.95
New Load.LOAD40 Phases=1 Bus1=1041.2 kV=0.23 kW=1 PF=0.95
New Load.LOAD41 Phases=1 Bus1=1049.2 kV=0.23 kW=1 PF=0.95
New Load.LOAD42 Phases=1 Bus1=1062.3 kV=0.23 kW=1 PF=0.95
New Load.LOAD43 Phases=1 Bus1=1075.1 kV=0.23 kW=1 PF=0.95
New Load.LOAD44 Phases=1 Bus1=1094.2 kV=0.23 kW=1 PF=0.95
New Load.LOAD45 Phases=1 Bus1=1095.2 kV=0.23 kW=1 PF=0.95
New Load.LOAD46 Phases=1 Bus1=1105.3 kV=0.23 kW=1 PF=0.95
New Load.LOAD47 Phases=1 Bus1=1106.3 kV=0.23 kW=1 PF=0.95
New Load.LOAD48 Phases=1 Bus1=1121.3 kV=0.23 kW=1 PF=0.95
New Load.LOAD49 Phases=1 Bus1=1146.2 kV=0.23 kW=1 PF=0.95
New Load.LOAD50 Phases=1 Bus1=1166.3 kV=0.23 kW=1 PF=0.95
New Load.LOAD51 Phases=1 Bus1=1202.2 kV=0.23 kW=1 PF=0.95
New Load.LOAD52 Phases=1 Bus1=1203.2 kV=0.23 kW=1 PF=0.95
New Load.LOAD53 Phases=1 Bus1=1219.1 kV=0.23 kW=1 PF=0.95
New Load.LOAD54 Phases=1 Bus1=1275.2 kV=0.23 kW=1 PF=0.95
New Load.LOAD55 Phases=1 Bus1=1317.1 kV=0.23 kW=1 PF=0.95
New Load.LOAD56 Phases=1 Bus1=1318.1 kV=0.23 kW=1 PF=0.95
New Load.LOAD57 Phases=1 Bus1=1327.1 kV=0.23 kW=1 PF=0.95
New Load.LOAD58 Phases=1 Bus1=1330.2 kV=0.23 kW=1 PF=0.95
New Load.LOAD59 Phases=1 Bus1=1382.3 kV=0.23 kW=1 PF=0.95
New Load.LOAD60 Phases=1 Bus1=1391.2 kV=0.23 kW=1 PF=0.95
New Load.LOAD61 Phases=1 Bus1=1405.1 kV=0.23 kW=1 PF=0.95
New Load.LOAD62 Phases=1 Bus1=1416.2 kV=0.23 kW=1 PF=0.95
New Load.LOAD63 Phases=1 Bus1=1509.2 kV=0.23 kW=1 PF=0.95
New Load.LOAD64 Phases=1 Bus1=1511.1 kV=0.23 kW=1 PF=0.95
New Load.LOAD65 Phases=1 Bus1=1518.3 kV=0.23 kW=1 PF=0.95
New Load.LOAD66 Phases=1 Bus1=1528.1 kV=0.23 kW=1 PF=0.95
New Load.LOAD67 Phases=1 Bus1=1550.2 kV=0.23 kW=1 PF=0.95
New Load.LOAD68 Phases=1 Bus1=1555.2 kV=0.23 kW=1 PF=0.95
New Load.LOAD69 Phases=1 Bus1=1584.2 kV=0.23 kW=1 PF=0.95
New Load.LOAD70 Phases=1 Bus1=1588.3 kV=0.23 kW=1 PF=0.95
New Load.LOAD71 Phases=1 Bus1=1606.1 kV=0.23 kW=1 PF=0.95
New Load.LOAD72 Phases=1 Bus1=1616.3 kV=0.23 kW=1 PF=0.95
New Load.LOAD73 Phases=1 Bus1=1617.3 kV=0.23 kW=1 PF=0.95
New Load.LOAD74 Phases=1 Bus1=1631.1 kV=0.23 kW=1 PF=0.95
New Load.LOAD75 Phases=1 Bus1=1671.1 kV=0.23 kW=1 PF=0.95
New Load.LOAD76 Phases=1 Bus1=1672.1 kV=0.23 kW=1 PF=0.95
New Load.LOAD77 Phases=1 Bus1=1718.2 kV=0.23 kW=1 PF=0.95
New Load.LOAD78 Phases=1 Bus1=1805.3 kV=0.23 kW=1 PF=0.95
New Load.LOAD79 Phases=1 Bus1=1808.3 kV=0.23 kW=1 PF=0.95
New Load.LOAD80 Phases=1 Bus1=1836.3 kV=0.23 kW=1 PF=0.95
New Load.LOAD81 Phases=1 Bus1=1839.3 kV=0.23 kW=1 PF=0.95
New Load.LOAD82 Phases=1 Bus1=1841.1 kV=0.23 kW=1 PF=0.95
New Load.LOAD83 Phases=1 Bus1=1845.1 kV=0.23 kW=1 PF=0.95
New Load.LOAD84 Phases=1 Bus1=1857.2 kV=0.23 kW=1 PF=0.95
New Load.LOAD85 Phases=1 Bus1=1862.2 kV=0.23 kW=1 PF=0.95
New Load.LOAD86 Phases=1 Bus1=1873.3 kV=0.23 kW=1 PF=0.95
New Load.LOAD87 Phases=1 Bus1=1885.1 kV=0.23 kW=1 PF=0.95
New Load.LOAD88 Phases=1 Bus1=1954.3 kV=0.23 kW=1 PF=0.95
New Load.LOAD89 Phases=1 Bus1=1972.2 kV=0.23 kW=1 PF=0.95
New Load.LOAD90 Phases=1 Bus1=2005.3 kV=0.23 kW=1 PF=0.95
New Load.LOAD91 Phases=1 Bus1=2006.3 kV=0.23 kW=1 PF=0.95
New Load.LOAD92 Phases=1 Bus1=2029.3 kV=0.23 kW=1 PF=0.95
New Load.LOAD93 Phases=1 Bus1=2031.2 kV=0.23 kW=1 PF=0.95
New Load.LOAD94 Phases=1 Bus1=2046.3 kV=0.23 kW=1 PF=0.95
New Load.LOAD95 Phases=1 Bus1=2063.3 kV=0.23 kW=1 PF=0.95
New Load.LOAD96 Phases=1 Bus1=2073.3 kV=0.23 kW=1 PF=0.95
New Load.LOAD97 Phases=1 Bus1=2081.2 kV=0.23 kW=1 PF=0.95
New Load.LOAD98 Phases=1 Bus1=2100.1 kV=0.23 kW=1 PF=0.95
New Load.LOAD99 Phases=1 Bus1=2101.1 kV=0.23 kW=1 PF=0.95
New Load.LOAD100 Phases=1 Bus1=2103.3 kV=0.23 kW=1 PF=0.95
New Load.LOAD101 Phases=1 Bus1=2105.3 kV=0.23 kW=1 PF=0.95
New Load.LOAD102 Phases=1 Bus1=2106.2 kV=0.23 kW=1 PF=0.95
New Load.LOAD103 Phases=1 Bus1=2108.2 kV=0.23 kW=1 PF=0.95
New Load.LOAD104 Phases=1 Bus1=2115.1 kV=0.23 kW=1 PF=0.95
New Load.LOAD105 Phases=1 Bus1=2119.1 kV=0.23 kW=1 PF=0.95
New Load.LOAD106 Phases=1 Bus1=2121.2 kV=0.23 kW=1 PF=0.95
New Load.LOAD107 Phases=1 Bus1=2126.3 kV=0.23 kW=1 PF=0.95
New Load.LOAD108 Phases=1 Bus1=2127.3 kV=0.23 kW=1 PF=0.95
New Load.LOAD109 Phases=1 Bus1=2131.1 kV=0.23 kW=1 PF=0.95
New Load.LOAD110 Phases=1 Bus1=2132.1 kV=0.23 kW=1 PF=0.95
New Load.LOAD111 Phases=1 Bus1=2133.1 kV=0.23 kW=1 PF=0.95
New Load.LOAD112 Phases=1 Bus1=2172.3 kV=0.23 kW=1 PF=0.95
New Load.LOAD113 Phases=1 Bus1=2181.2 kV=0.23 kW=1 PF=0.95
New Load.LOAD114 Phases=1 Bus1=2182.2 kV=0.23 kW=1 PF=0.95
New Load.LOAD115 Phases=1 Bus1=2231.3 kV=0.23 kW=1 PF=0.95
New Load.LOAD116 Phases=1 Bus1=2250.3 kV=0.23 kW=1 PF=0.95
New Load.LOAD117 Phases=1 Bus1=2254.2 kV=0.23 kW=1 PF=0.95
New Load.LOAD118 Phases=1 Bus1=2255.2 kV=0.23 kW=1 PF=0.95
New Load.LOAD119 Phases=1 Bus1=2291.2 kV=0.23 kW=1 PF=0.95
New Load.LOAD120 Phases=1 Bus1=2342.1 kV=0.23 kW=1 PF=0.95
New Load.LOAD121 Phases=1 Bus1=2370.3 kV=0.23 kW=1 PF=0.95
New Load.LOAD122 Phases=1 Bus1=2371.3 kV=0.23 kW=1 PF=0.95
New Load.LOAD123 Phases=1 Bus1=2392.2 kV=0.23 kW=1 PF=0.95
New Load.LOAD124 Phases=1 Bus1=2393.2 kV=0.23 kW=1 PF=0.95
New Load.LOAD125 Phases=1 Bus1=2402.2 kV=0.23 kW=1 PF=0.95
New Load.LOAD126 Phases=1 Bus1=2403.2 kV=0.23 kW=1 PF=0.95
New Load.LOAD127 Phases=1 Bus1=2430.3 kV=0.23 kW=1 PF=0.95
New Load.LOAD128 Phases=1 Bus1=2431.3 kV=0.23 kW=1 PF=0.95
New Load.LOAD129 Phases=1 Bus1=2435.2 kV=0.23 kW=1 PF=0.95
New Load.LOAD130 Phases=1 Bus1=2461.1 kV=0.23 kW=1 PF=0.95
New Load.LOAD131 Phases=1 Bus1=2462.3 kV=0.23 kW=1 PF=0.95
New Load.LOAD132 Phases=1 Bus1=2482.3 kV=0.23 kW=1 PF=0.95
New Load.LOAD133 Phases=1 Bus1=2484.3 kV=0.23 kW=1 PF=0.95
New Load.LOAD134 Phases=1 Bus1=2485.3 kV=0.23 kW=1 PF=0.95
New Load.LOAD135 Phases=1 Bus1=2496.1 kV=0.23 kW=1 PF=0.95
New Load.LOAD136 Phases=1 Bus1=2550.1 kV=0.23 kW=1 PF=0.95
New Load.LOAD137 Phases=1 Bus1=2574.1 kV=0.23 kW=1 PF=0.95
New Load.LOAD138 Phases=1 Bus1=2575.2 kV=0.23 kW=1 PF=0.95
New Load.LOAD139 Phases=1 Bus1=2576.2 kV=0.23 kW=1 PF=0.95
New Load.LOAD140 Phases=1 Bus1=2587.1 kV=0.23 kW=1 PF=0.95
New Load.LOAD141 Phases=1 Bus1=2599.1 kV=0.23 kW=1 PF=0.95
New Load.LOAD142 Phases=1 Bus1=2600.1 kV=0.23 kW=1 PF=0.95
New Load.LOAD143 Phases=1 Bus1=2609.2 kV=0.23 kW=1 PF=0.95
New Load.LOAD144 Phases=1 Bus1=2610.2 kV=0.23 kW=1 PF=0.95
New Load.LOAD145 Phases=1 Bus1=2640.1 kV=0.23 kW=1 PF=0.95
New Load.LOAD146 Phases=1 Bus1=2642.1 kV=0.23 kW=1 PF=0.95
New Load.LOAD147 Phases=1 Bus1=2665.2 kV=0.23 kW=1 PF=0.95
New Load.LOAD148 Phases=1 Bus1=2676.2 kV=0.23 kW=1 PF=0.95
New Load.LOAD149 Phases=1 Bus1=2708.2 kV=0.23 kW=1 PF=0.95
New Load.LOAD150 Phases=1 Bus1=2709.1 kV=0.23 kW=1 PF=0.95
New Load.LOAD151 Phases=1 Bus1=2732.1 kV=0.23 kW=1 PF=0.95
New Load.LOAD152 Phases=1 Bus1=2756.1 kV=0.23 kW=1 PF=0.95
New Load.LOAD153 Phases=1 Bus1=2846.1 kV=0.23 kW=1 PF=0.95
New Load.LOAD154 Phases=1 Bus1=2858.2 kV=0.23 kW=1 PF=0.95
New Load.LOAD155 Phases=1 Bus1=2872.3 kV=0.23 kW=1 PF=0.95
New Load.LOAD156 Phases=1 Bus1=2873.3 kV=0.23 kW=1 PF=0.95
New Load.LOAD157 Phases=1 Bus1=2881.2 kV=0.23 kW=1 PF=0.95
New Load.LOAD158 Phases=1 Bus1=2883.3 kV=0.23 kW=1 PF=0.95
New Load.LOAD159 Phases=1 Bus1=2901.2 kV=0.23 kW=1 PF=0.95
New Load.LOAD160 Phases=1 Bus1=2902.2 kV=0.23 kW=1 PF=0.95
New Load.LOAD161 Phases=1 Bus1=2915.2 kV=0.23 kW=1 PF=0.95
New Load.LOAD162 Phases=1 Bus1=2924.3 kV=0.23 kW=1 PF=0.95
New Load.LOAD163 Phases=1 Bus1=2925.3 kV=0.23 kW=1 PF=0.95
New Load.LOAD164 Phases=1 Bus1=2934.2 kV=0.23 kW=1 PF=0.95
New Load.LOAD165 Phases=1 Bus1=2935.2 kV=0.23 kW=1 PF=0.95
New Load.LOAD166 Phases=1 Bus1=2936.2 kV=0.23 kW=1 PF=0.95
New Load.LOAD167 Phases=1 Bus1=2951.2 kV=0.23 kW=1 PF=0.95
New Load.LOAD168 Phases=1 Bus1=2953.3 kV=0.23 kW=1 PF=0.95
New Load.LOAD169 Phases=1 Bus1=3023.2 kV=0.23 kW=1 PF=0.95
New Load.LOAD170 Phases=1 Bus1=3024.2 kV=0.23 kW=1 PF=0.95
New Load.LOAD171 Phases=1 Bus1=3039.3 kV=0.23 kW=1 PF=0.95
New Load.LOAD172 Phases=1 Bus1=3040.3 kV=0.23 kW=1 PF=0.95
New Load.LOAD173 Phases=1 Bus1=3091.1 kV=0.23 kW=1 PF=0.95
New Load.LOAD174 Phases=1 Bus1=3106.1 kV=0.23 kW=1 PF=0.95
New Load.LOAD175 Phases=1 Bus1=3130.1 kV=0.23 kW=1 PF=0.95
New Load.LOAD176 Phases=1 Bus1=3138.1 kV=0.23 kW=1 PF=0.95
New Load.LOAD177 Phases=1 Bus1=3166.3 kV=0.23 kW=1 PF=0.95
New Load.LOAD178 Phases=1 Bus1=3198.2 kV=0.23 kW=1 PF=0.95
New Load.LOAD179 Phases=1 Bus1=3199.2 kV=0.23 kW=1 PF=0.95
New Load.LOAD180 Phases=1 Bus1=3200.2 kV=0.23 kW=1 PF=0.95
New Load.LOAD181 Phases=1 Bus1=3220.1 kV=0.23 kW=1 PF=0.95
New Load.LOAD182 Phases=1 Bus1=3225.1 kV=0.23 kW=1 PF=0.95
New Load.LOAD183 Phases=1 Bus1=3226.1 kV=0.23 kW=1 PF=0.95
New Load.LOAD184 Phases=1 Bus1=3246.3 kV=0.23 kW=1 PF=0.95
New Load.LOAD185 Phases=1 Bus1=3247.3 kV=0.23 kW=1 PF=0.95
New Load.LOAD186 Phases=1 Bus1=3248.3 kV=0.23 kW=1 PF=0.95
New Load.LOAD187 Phases=1 Bus1=3249.1 kV=0.23 kW=1 PF=0.95
New Load.LOAD188 Phases=1 Bus1=3250.1 kV=0.23 kW=1 PF=0.95
New Load.LOAD189 Phases=1 Bus1=3314.3 kV=0.23 kW=1 PF=0.95
New Load.LOAD190 Phases=1 Bus1=3335.2 kV=0.23 kW=1 PF=0.95
New Load.LOAD191 Phases=1 Bus1=3339.2 kV=0.23 kW=1 PF=0.95
New Load.LOAD192 Phases=1 Bus1=3340.2 kV=0.23 kW=1 PF=0.95
New Load.LOAD193 Phases=1 Bus1=3341.2 kV=0.23 kW=1 PF=0.95
New Load.LOAD194 Phases=1 Bus1=3361.2 kV=0.23 kW=1 PF=0.95
New Load.LOAD195 Phases=1 Bus1=3362.2 kV=0.23 kW=1 PF=0.95
New Load.LOAD196 Phases=1 Bus1=3407.3 kV=0.23 kW=1 PF=0.95
New Load.LOAD197 Phases=1 Bus1=3417.3 kV=0.23 kW=1 PF=0.95
New Load.LOAD198 Phases=1 Bus1=3445.3 kV=0.23 kW=1 PF=0.95
New Load.LOAD199 Phases=1 Bus1=3479.1 kV=0.23 kW=1 PF=0.95
New Load.LOAD200 Phases=1 Bus1=3507.3 kV=0.23 kW=1 PF=0.95
New Load.LOAD201 Phases=1 Bus1=3531.3 kV=0.23 kW=1 PF=0.95
New Load.LOAD202 Phases=1 Bus1=3535.1 kV=0.23 kW=1 PF=0.95
New Load.LOAD203 Phases=1 Bus1=3564.1 kV=0.23 kW=1 PF=0.95
New Load.LOAD204 Phases=1 Bus1=3565.1 kV=0.23 kW=1 PF=0.95
New Load.LOAD205 Phases=1 Bus1=3576.3 kV=0.23 kW=1 PF=0.95
New Load.LOAD206 Phases=1 Bus1=3577.3 kV=0.23 kW=1 PF=0.95
New Load.LOAD207 Phases=1 Bus1=3578.2 kV=0.23 kW=1 PF=0.95
New Load.LOAD208 Phases=1 Bus1=3579.2 kV=0.23 kW=1 PF=0.95
New Load.LOAD209 Phases=1 Bus1=3616.3 kV=0.23 kW=1 PF=0.95
New Load.LOAD210 Phases=1 Bus1=3621.3 kV=0.23 kW=1 PF=0.95
New Load.LOAD211 Phases=1 Bus1=3659.3 kV=0.23 kW=1 PF=0.95
New Load.LOAD212 Phases=1 Bus1=3660.3 kV=0.23 kW=1 PF=0.95
New Load.LOAD213 Phases=1 Bus1=3666.1 kV=0.23 kW=1 PF=0.95
New Load.LOAD214 Phases=1 Bus1=3674.3 kV=0.23 kW=1 PF=0.95
New Load.LOAD215 Phases=1 Bus1=3698.3 kV=0.23 kW=1 PF=0.95
New Load.LOAD216 Phases=1 Bus1=3731.1 kV=0.23 kW=1 PF=0.95
New Load.LOAD217 Phases=1 Bus1=3750.3 kV=0.23 kW=1 PF=0.95
New Load.LOAD218 Phases=1 Bus1=3751.3 kV=0.23 kW=1 PF=0.95
New Load.LOAD219 Phases=1 Bus1=3754.1 kV=0.23 kW=1 PF=0.95
New Load.LOAD220 Phases=1 Bus1=3755.1 kV=0.23 kW=1 PF=0.95
New Load.LOAD221 Phases=1 Bus1=3832.3 kV=0.23 kW=1 PF=0.95
New Load.LOAD222 Phases=1 Bus1=3836.1 kV=0.23 kW=1 PF=0.95
New Load.LOAD223 Phases=1 Bus1=3855.3 kV=0.23 kW=1 PF=0.95
